{
    "spec_version": "v1.4",
    "identifier": "KerbalPowersNaval",
    "name": "Kerbal Powers Naval",
    "abstract": "Stockalike Boat Propellers, Turbine Generators, and Ballast Tanks",
    "author": [
        "Spartwo",
        "MiffedStarfish"
    ],
    "version": "v1.0.3",
    "ksp_version": "1.12.5",
    "license": "restricted",
    "resources": {
        "homepage": "https://forum.kerbalspaceprogram.com/topic/228684-kerbal-powers-naval-v10/",
        "spacedock": "https://spacedock.info/mod/3977/Kerbal%20Powers%20Naval",
        "repository": "https://github.com/KerbalPowers/KP-Dynamics",
        "manual": "https://github.com/KerbalPowers/KP-Dynamics/wiki",
        "discussions": "https://github.com/KerbalPowers/KP-Dynamics/discussions",
        "x_screenshot": "https://spacedock.info/content/Spartwo_95463/Kerbal_Powers_Naval/Kerbal_Powers_Naval-1756485279.png"
    },
    "tags": [
        "parts",
        "plugin"
    ],
    "localizations": [
        "en-us"
    ],
    "depends": [
        {
            "name": "ModuleManager"
        },
        {
            "name": "KerbalPowersCore"
        },
        {
            "name": "FirespitterCore"
        }
    ],
    "suggests": [
        {
            "name": "RationalHydroDynamics"
        },
        {
            "name": "VABorganizer"
        }
    ],
    "install": [
        {
            "find": "KerbalPowers/Naval",
            "install_to": "GameData/KerbalPowers"
        },
        {
            "find": "KerbalPowers/Electrics",
            "install_to": "GameData/KerbalPowers"
        },
        {
            "find": "TURD",
            "install_to": "GameData"
        }
    ],
    "download": "https://spacedock.info/mod/3977/Kerbal%20Powers%20Naval/download/v1.0.3",
    "download_size": 25048203,
    "download_hash": {
        "sha1": "2216094B0B0B57AB8D97CDF1AF88388044BB0BAF",
        "sha256": "9A746258E26CD928D5B95C87FED418973BA485BD3085ED82804673E90F456D30"
    },
    "download_content_type": "application/zip",
    "install_size": 59609208,
    "release_date": "2026-01-28T17:19:34.430667+00:00",
    "x_generated_by": "netkan"
}
