{
    "spec_version": "v1.4",
    "identifier": "KerbalPowersNaval",
    "name": "Kerbal Powers Naval",
    "abstract": "Stockalike Boat Propellers, Turbine Generators, and Ballast Tanks",
    "author": [
        "Spartwo",
        "MiffedStarfish"
    ],
    "version": "v1.0.1",
    "ksp_version": "1.12.5",
    "license": "restricted",
    "resources": {
        "homepage": "https://forum.kerbalspaceprogram.com/topic/228684-kerbal-powers-naval-v10/",
        "spacedock": "https://spacedock.info/mod/3977/Kerbal%20Powers%20Naval",
        "repository": "https://github.com/KerbalPowers/KP-Dynamics",
        "manual": "https://github.com/KerbalPowers/KP-Dynamics/wiki",
        "discussions": "https://github.com/KerbalPowers/KP-Dynamics/discussions",
        "x_screenshot": "https://spacedock.info/content/Spartwo_95463/Kerbal_Powers_Naval/Kerbal_Powers_Naval-1756485279.png"
    },
    "tags": [
        "parts",
        "plugin"
    ],
    "localizations": [
        "en-us"
    ],
    "depends": [
        {
            "name": "ModuleManager"
        },
        {
            "name": "KerbalPowersCore"
        },
        {
            "name": "FirespitterCore"
        }
    ],
    "suggests": [
        {
            "name": "RationalHydroDynamics"
        },
        {
            "name": "VABorganizer"
        }
    ],
    "install": [
        {
            "find": "KerbalPowers/Naval",
            "install_to": "GameData/KerbalPowers"
        },
        {
            "find": "KerbalPowers/Electrics",
            "install_to": "GameData/KerbalPowers"
        },
        {
            "find": "TURD",
            "install_to": "GameData"
        }
    ],
    "download": "https://spacedock.info/mod/3977/Kerbal%20Powers%20Naval/download/v1.0.1",
    "download_size": 25047284,
    "download_hash": {
        "sha1": "DC1ECC67AF0BDC25C9C04D74BA83DD47477A51E2",
        "sha256": "1668F995E8922CE79F62150FD704C5E5174D8AF6079D5CA2D1AF3DD65024C950"
    },
    "download_content_type": "application/zip",
    "install_size": 59608350,
    "release_date": "2025-08-31T20:00:27.732281+00:00",
    "x_generated_by": "netkan"
}
