{
    "spec_version": "v1.4",
    "identifier": "KerbalPowersNaval",
    "name": "Kerbal Powers Naval",
    "abstract": "Stockalike Boat Propellers, Turbine Generators, and Ballast Tanks",
    "author": [
        "Spartwo",
        "MiffedStarfish"
    ],
    "version": "v1.0",
    "ksp_version": "1.12.5",
    "license": "restricted",
    "resources": {
        "homepage": "https://forum.kerbalspaceprogram.com/topic/228684-kerbal-powers-naval-v10/",
        "spacedock": "https://spacedock.info/mod/3977/Kerbal%20Powers%20Naval",
        "repository": "https://github.com/KerbalPowers/KP-Dynamics",
        "discussions": "https://github.com/KerbalPowers/KP-Dynamics/discussions",
        "x_screenshot": "https://spacedock.info/content/Spartwo_95463/Kerbal_Powers_Naval/Kerbal_Powers_Naval-1756485279.png"
    },
    "tags": [
        "parts",
        "plugin"
    ],
    "localizations": [
        "en-us"
    ],
    "depends": [
        {
            "name": "ModuleManager"
        },
        {
            "name": "KerbalPowersCore"
        },
        {
            "name": "FirespitterCore"
        }
    ],
    "suggests": [
        {
            "name": "RationalHydroDynamics"
        },
        {
            "name": "VABorganizer"
        }
    ],
    "install": [
        {
            "find": "KerbalPowers/Naval",
            "install_to": "GameData/KerbalPowers"
        },
        {
            "find": "KerbalPowers/Electrics",
            "install_to": "GameData/KerbalPowers"
        },
        {
            "find": "TURD",
            "install_to": "GameData"
        }
    ],
    "download": "https://spacedock.info/mod/3977/Kerbal%20Powers%20Naval/download/v1.0",
    "download_size": 25047044,
    "download_hash": {
        "sha1": "09961170449799BC6D598FF4EC261771F4367DF1",
        "sha256": "A5B485849A6C2043382467EA6B305900499EEC4A67C6192F8971421E877AD950"
    },
    "download_content_type": "application/zip",
    "install_size": 59608350,
    "release_date": "2025-08-29T23:08:22.577342+00:00",
    "x_generated_by": "netkan"
}
