{
    "spec_version": "v1.4",
    "identifier": "KerbalPowersNaval",
    "name": "Kerbal Powers Naval",
    "abstract": "Stockalike Boat Propellers, Turbine Generators, and Ballast Tanks",
    "author": [
        "Spartwo",
        "MiffedStarfish"
    ],
    "version": "v1.0.3",
    "ksp_version": "1.12.5",
    "license": "restricted",
    "resources": {
        "homepage": "https://forum.kerbalspaceprogram.com/topic/228684-kerbal-powers-naval-v10/",
        "spacedock": "https://spacedock.info/mod/3977/Kerbal%20Powers%20Naval",
        "repository": "https://github.com/KerbalPowers/KP-Dynamics",
        "manual": "https://github.com/KerbalPowers/KP-Dynamics/wiki",
        "discussions": "https://github.com/KerbalPowers/KP-Dynamics/discussions",
        "x_screenshot": "https://spacedock.info/content/Spartwo_95463/Kerbal_Powers_Naval/Kerbal_Powers_Naval-1756485279.png"
    },
    "tags": [
        "parts",
        "plugin"
    ],
    "localizations": [
        "en-us"
    ],
    "depends": [
        {
            "name": "ModuleManager"
        },
        {
            "name": "KerbalPowersCore"
        },
        {
            "name": "FirespitterCore"
        }
    ],
    "suggests": [
        {
            "name": "RationalHydroDynamics"
        },
        {
            "name": "VABorganizer"
        }
    ],
    "install": [
        {
            "find": "KerbalPowers/Naval",
            "install_to": "GameData/KerbalPowers"
        },
        {
            "find": "KerbalPowers/Electrics",
            "install_to": "GameData/KerbalPowers"
        },
        {
            "find": "TURD",
            "install_to": "GameData"
        }
    ],
    "download": "https://spacedock.info/mod/3977/Kerbal%20Powers%20Naval/download/v1.0.3",
    "download_size": 25047955,
    "download_hash": {
        "sha1": "E38DCDD3CC72206833456EAF155455089FC4D1B5",
        "sha256": "032EBA739ED49C76BCBD21D1F04A165B87ECAA09B4BB65A0697BC6E7CE146750"
    },
    "download_content_type": "application/zip",
    "install_size": 59609208,
    "release_date": "2026-01-28T15:28:11.587273+00:00",
    "x_generated_by": "netkan"
}
