{
    "spec_version": "v1.4",
    "identifier": "RationalHydroDynamics",
    "name": "Rational HydroDynamics",
    "abstract": "Addresses KSP's problem of: Everything has max buoyancy and the same pressure limit ",
    "author": "JadeOfMaar",
    "version": "1.1",
    "ksp_version": "1.11.2",
    "license": "MIT",
    "resources": {
        "homepage": "https://forum.kerbalspaceprogram.com/index.php?/topic/200225-*/",
        "spacedock": "https://spacedock.info/mod/2635/Rational%20HydroDynamics",
        "repository": "https://github.com/JadeOfMaar/RationalHydroDynamics",
        "bugtracker": "https://github.com/JadeOfMaar/RationalHydroDynamics/issues",
        "remote-avc": "https://raw.githubusercontent.com/JadeOfMaar/RationalHydroDynamics/main/GameData/RationalHydroDynamics/Version/RationalHydroDynamics.version",
        "x_screenshot": "https://spacedock.info/content/JadeOfMaar_11026/Rational_HydroDynamics/Rational_HydroDynamics-1612925887.876127.png"
    },
    "tags": [
        "config"
    ],
    "depends": [
        {
            "name": "ModuleManager"
        }
    ],
    "download": "https://spacedock.info/mod/2635/Rational%20HydroDynamics/download/1.1",
    "download_size": 6555,
    "download_hash": {
        "sha1": "870FE14127977DE6280EE84594F7C17BA2DFB9A3",
        "sha256": "C0C7E8C287065B828C45E524BC430ABC9706739239D83963CA78AAA028238371"
    },
    "download_content_type": "application/zip",
    "install_size": 17731,
    "release_date": "2021-04-23T09:42:30.23298+00:00",
    "x_generated_by": "netkan"
}
